powerflow/Codes/PF_Formulation/resultados_csv/barras_problematicas_SIN.csv
ID_Barra,Tipo_Barra,Tensao_Mag_pu,Tensao_Ang_graus,P_Geracao_pu,Q_Geracao_pu,P_Carga_pu,Q_Carga_pu,Desvio_Tensao_QLIM_pu,Corte_Reativo_VLIM_pu,Folga_Ativa_SLP_pu
84,1,1.050000010499997,-14.625687644879191,0.0,0.0,0.0,0.0,0.0,0.0001777155030447573,3.217503809771697e-5
87,1,1.062539996667825,-13.896783907899104,0.0,0.0,0.0,0.0,0.0,0.00016254220324531278,4.141447873032844e-5
182,1,1.0310649006587904,-14.178542977830812,0.0,0.0,0.0,0.0,0.0,0.0001605985762313947,3.7849761138557736e-5
607,1,1.0221548350372,-26.970408953049276,0.0,0.0,0.0,0.0,0.0,-0.026650303788436656,0.0059778068680386865
1391,1,1.0454104527271586,-15.021072361558913,0.0,0.0,0.0,0.0,0.0,0.0001787984773724722,2.9456579554536205e-5
1392,1,1.044908142507634,-15.051426505661565,0.0,0.0,0.035,0.013999999999999999,0.0,0.00017888083118053187,2.9247007648374968e-5
1394,1,1.0452022634905387,-15.022830624010584,0.0,0.0,0.038,0.013999999999999999,0.0,0.0001788029772273527,2.9444551602176375e-5
1395,1,1.0449662384101115,-15.041716603616225,0.0,0.0,0.046,0.018000000000000002,0.0,0.00017885469639432124,2.9313992826891702e-5
1706,1,1.0407213653467784,-14.419552268374987,0.0,0.0,0.114,0.046,0.0,0.0001698242258028695,3.5376724715598644e-5
1729,1,1.0449664662661933,-15.057310728703538,0.0,0.0,0.039,0.016,0.0,0.00017889467868623,2.9207181761601304e-5
1775,1,1.044908474010337,-15.060408254157425,0.0,0.0,0.043,0.016,0.0,0.00017890251311203573,2.9186017069587922e-5
1777,1,1.0446377843379877,-15.07389399796265,0.0,0.0,0.043,0.018000000000000002,0.0,0.0001789449114678541,2.9087463179059202e-5
1780,1,1.047432342958833,-14.839424724922896,0.0,0.0,0.184,0.076,0.0,0.00017831225147321993,3.070446857293874e-5
1788,1,1.0417895949589953,-14.523610611812249,0.0,0.0,0.124,0.052000000000000005,0.0,0.00017174661007587718,3.428228208574781e-5
1797,1,1.0433859566428914,-14.538565347875304,0.0,0.0,0.025,0.009000000000000001,0.0,0.00017273753993720243,3.3946339873613956e-5
2537,1,1.0500000104999567,24.833882876151517,0.0,0.0,0.0,0.0,0.0,0.00010075372857557448,1.3916411055275474e-5
2615,1,0.9527865886111293,10.496285032584263,0.0,0.0,0.079,0.032,0.0,-0.0002213900633066693,0.00020132265423674245
2686,1,0.9560737467233884,10.88591109336134,0.0,0.0,0.04,0.016,0.0,0.0001425136887479164,-0.00022889189126552671
2687,1,1.0456222937205533,17.286216956318416,0.0,0.0,0.029000000000000005,0.005,0.0,0.005601956637280567,-0.0038384348080492884
2688,1,0.9499999900000001,10.634691464097639,0.0,0.0,0.03899999999999999,0.036000000000000004,0.0,-0.0013918457788513316,0.0010663809826807946
2689,1,1.000867041106543,16.390218323790602,0.0,0.0,0.09299999999999999,0.024,0.0,0.004601424106298739,-0.0024694701295676687
2690,1,1.0500000104999998,21.641747144246075,0.0,0.0,0.0,0.0,0.0,0.009238638708517861,-0.003094074800089081
2696,2,0.998052503397152,25.218159653557077,0.5,0.0,0.0,0.0,0.0,0.0,-0.0019346906237941793
2916,1,1.0090964684512704,17.61719616758333,0.0,0.0,-0.12,0.0,0.0,0.004615221802435166,-0.0022349349257480985
3071,1,0.956382022037482,11.109156073599928,0.0,0.0,0.0,0.0,0.0,0.0005402961327654103,-0.00025660484585156426
3096,1,0.9627766598593688,12.285953691460369,0.0,0.0,0.045,0.004,0.0,0.0015623061949163366,-0.0008269594614243496
3281,1,1.024930768760193,-14.761116931791157,0.0,0.0,0.0,0.0,0.0,0.0001351632235353867,3.5238173377993356e-5
3282,1,1.024106826603094,-14.781636583387904,0.0,0.0,0.0,0.0,0.0,0.00013360506994976228,3.6269912018081086e-5
3404,1,1.0017172206926945,14.423820650687386,0.0,0.0,0.016,0.004,0.0,0.0031317968469875297,-0.0024380789641259277
3584,1,0.9908031359709661,-16.09571567054979,0.0,0.0,0.0,0.0,0.0,0.0001818370890537124,2.2801451304468718e-5
3592,1,0.9907778822533828,-16.095229125569496,0.0,0.0,0.057,0.023,0.0,0.00018182646315058408,2.280970242872892e-5
3630,1,0.9589491006052269,24.82622633853016,0.0,0.0,0.0,0.0,0.0,0.00010076454358111031,1.3889266645443518e-5
4469,1,0.9728625682109601,32.111100653628526,0.0,0.0,0.11600000000000002,0.048,0.0,0.00031905744982481816,2.583454629778528e-5
4471,1,0.949999990000016,33.73572112509076,0.0,0.0,0.0,0.0,0.0,0.00011710726275981102,6.320579646793912e-5
4473,1,0.9783459529592547,34.91023913014158,0.0,0.0,0.0,0.0,0.0,0.0003231688654984498,5.595327816415323e-5
4475,1,0.9781461834414529,34.87470824339595,0.0,0.0,0.0,0.0,0.0,0.00032312956917680694,5.5594016480944454e-5
4477,1,0.9779905217451668,34.84857773313295,0.0,0.0,0.0,0.0,0.0,0.0003231057213949775,5.532889057148463e-5
4959,1,0.9607498845008638,23.09732196732461,0.0,0.0,0.047,0.01,0.0,0.00012098935476395625,-7.510560622673364e-6
4963,1,0.9726602730185947,23.564866039285366,0.0,0.0,0.154,0.036000000000000004,0.0,0.0003071499134112617,-6.995576083164285e-5
4970,1,1.0500000104999998,27.431152866167103,0.0,0.0,-0.151,0.0,0.0,0.0015824195634773287,-0.0004910521105571273
4971,1,1.0499290427010564,27.313355846505157,0.0,0.0,-0.303,0.0,0.0,0.0011598600901125107,-0.0003239742404231199
4973,1,0.9742993252161366,27.08388417332931,0.0,0.0,0.176,0.054000000000000006,0.0,0.0004770673000643962,-8.452224641931916e-5
4982,1,0.9499999900000003,12.314313517657421,0.0,0.0,0.183,0.087,0.0,-0.014168622241156996,0.009587698100899014
4983,1,0.9905049897314285,24.61953607988378,0.0,0.0,0.255,0.09,0.0,0.0006972051222532532,-0.000221218651574479
4990,1,1.0178264664706598,26.64664851521917,0.0,0.0,-0.10800000000000001,0.0,0.0,0.0008914291409577622,-0.00024548016594840266
4992,1,1.0390672452533976,24.379030177798903,0.0,0.0,0.039,0.0,0.0,-0.00106343373619314,0.0005890897574195156
4994,1,1.0005811574791097,17.24061480018774,0.0,0.0,0.14,0.028999999999999998,0.0,-0.006990838405417335,0.004280711546731374
4997,1,1.014654601452812,26.432599950946585,0.0,0.0,-0.09300000000000001,0.0,0.0,0.0008601141926313448,-0.00023882592375113246
5037,1,1.0090660529213589,68.14985597426153,0.0,0.0,0.0,0.0,0.0,-0.00048625939945422405,-7.717928849617785e-5
5038,1,0.9976342441901398,73.90166765707009,0.0,0.0,0.0,0.0,0.0,-0.0005164595426119904,-0.00017817980490338165
5039,1,1.0004367206989866,72.81769114654111,0.0,0.0,0.0,0.0,0.0,-0.0005103360759249156,-0.00015855112563721032
5040,1,1.004099975103824,76.7790802177645,0.0,0.0,-0.7123,0.053399999999999996,0.0,-0.0005198175383082623,-0.00022414755125367707
5094,1,0.9237908507647148,48.933533188740874,0.0,0.0,0.0,0.0,0.0,0.000710075748813192,-0.00010950010534972523
5095,1,0.9235780860506092,48.932118992091844,0.0,0.0,0.0,0.0,0.0,0.0007104029852099156,-0.00010955056283199667
5096,1,1.0359304468975017,50.90093796991382,0.0,0.0,0.0,0.0,0.0,0.0007187843930842937,-5.841935787170731e-5
5097,1,1.035853564625533,50.900592367887896,0.0,0.0,0.0,0.0,0.0,0.0007188910990648331,-5.842803071213116e-5
5298,1,1.0332224569552841,77.40825290895819,0.0,0.0,0.0,0.0,0.0,-0.00011430557662726628,-9.275824134215501e-5
5303,1,1.0316565040630328,76.91892244370165,0.0,0.0,0.0,0.0,0.0,-0.00026938196478244595,-9.309574665840107e-5
5305,1,1.0333310314413076,77.53497034624515,0.0,0.0,0.0,0.0,0.0,-0.0002713013993623463,-9.836788422527122e-5
5307,1,1.0249416196656516,82.38180682230927,0.0,0.0,0.0,0.0,0.0,-0.00027928574123901704,-0.00014556774524479788
5309,1,1.02978764907134,82.83776557214733,0.0,0.0,0.0,0.0,0.0,-0.0002814069650884728,-0.0001496682872237145
5322,1,1.001701971183836,77.81746938991004,0.0,0.0,-0.8741,0.0525,0.0,-0.0005249071329972678,-0.00024381537835673945
5325,1,1.0361678135618322,66.3214006565172,0.0,0.0,0.0,0.0,0.0,-0.00017559000736869888,-8.171926391880672e-6
5327,1,1.0500000104992804,75.25513524026796,0.0,0.0,0.0,0.0,0.0,-0.00026837211433653537,-7.747573074486158e-5
5390,1,1.1575913776328342,48.98676714589175,0.0,0.0,0.0,0.0,0.0,0.0007105554764335651,-0.00010800882189814015
5391,1,1.030210112516398,48.80832223134692,0.0,0.0,0.0,0.0,0.0,0.0007109460903489657,-0.00011244882139823119
5392,1,1.1574227173226665,48.9854982069089,0.0,0.0,0.0,0.0,0.0,0.0007107625920587897,-0.00010804030191937252
5393,1,1.038921433056718,47.171401301043836,0.0,0.0,0.48800000000000004,0.016,0.0,0.0007130128433213863,-0.00015325865248529944
5410,1,1.0111846304867151,67.43935356576046,0.0,0.0,0.0,0.0,0.0,-0.0001498934714866039,7.980774813438181e-6
5430,1,1.0486693117960812,50.980743980879005,0.0,0.0,0.0,0.0,0.0,0.0007029190607323753,-5.630008948238273e-5
5432,1,1.0500000104999956,50.3531407022149,0.0,0.0,0.095,0.027000000000000003,0.0,0.000839006027771119,-7.838021715783703e-5
5435,1,1.0590728755263699,45.08703989332497,0.0,0.0,0.0,0.0,0.0,0.001437125726949056,-0.00022278638109020753
5436,1,1.0475461871137466,51.55218822314123,0.0,0.0,0.0,0.0,0.0,0.0005891298971763565,-4.241831986324844e-5
5437,1,1.007621299133886,58.56586039049582,0.0,0.0,0.0,0.0,0.0,0.0010348570334258852,0.00010357258180890805
5459,1,1.0500000104999951,83.67680468319274,0.0,0.0,-0.4747,0.0,0.0,0.00022089655932917032,-9.529585470871747e-7
5464,1,1.0621741226742647,50.95967965609745,0.0,0.0,0.0,0.0,0.0,0.0007174294702743045,-5.59430148541223e-5
5465,1,1.0622758047223937,50.959974265784425,0.0,0.0,0.0,0.0,0.0,0.0007172921242251462,-5.59323045185933e-5
5519,1,1.0462864611660172,82.83859917303369,0.0,0.0,0.0,0.0,0.0,0.0001877922001199262,-2.402443351569699e-6
5530,1,1.0267144906821932,81.23023354936011,0.0,0.0,0.0,0.0,0.0,-0.00027829823587691816,-0.00013438476327965357
5570,1,1.0367609183916044,59.156779787949986,0.0,0.0,0.0,0.0,0.0,-0.00043225684906696946,5.65639024903937e-5
5571,1,1.015427098838129,61.025646613193736,0.0,0.0,0.0,0.0,0.0,-0.00043448393572852894,3.1854094650640614e-5
5572,1,0.9999999900000001,54.127580006679416,0.0,0.0,0.0,0.0,0.0,0.0015846255085844637,0.0003632364254940653
5573,1,1.0500000100845455,57.140014507553296,0.0,0.0,0.452,0.011000000000000001,0.0,-0.0004359929559793635,9.097795502626114e-5
5574,1,0.9999999900000001,64.30500413456753,0.0,0.0,0.0,0.0,0.0,0.000995570595878483,0.0001322683118817829
5575,1,1.0093061975228526,58.668433210358785,0.0,0.0,0.0,0.0,0.0,0.0010400887137889537,0.0001027252351686544
5576,1,1.0569191052549156,45.08030182553687,0.0,0.0,0.0,0.0,0.0,0.001436977682486996,-0.00022331910371377973
5577,1,1.0371368249874653,54.91185139261448,0.0,0.0,0.0,0.0,0.0,-0.0012611460271111663,-7.903302872080919e-5
5600,1,1.0344617111853407,85.76996951170894,0.0,0.0,-0.6892,-0.01002,0.0,-0.00028095621424683047,-0.00017557728973284628
5611,1,1.0044564826811748,67.48876440264357,0.0,0.0,0.0,0.0,0.0,-0.00020070141148526577,-5.329887476663886e-6
5613,1,1.0500000103074294,66.65944297635316,0.0,0.0,0.254,-0.08800000000000001,0.0,-0.00019864037548276655,3.816797314773703e-7
5620,1,1.0264906455832876,82.80622113083416,0.0,0.0,0.0,0.0,0.0,-0.00028023937568778736,-0.0001492536622860942
5622,1,1.0347762471609494,86.0734804553188,0.0,0.0,-0.8423,-0.02243,0.0,-0.0002811253020941498,-0.00017854392817298774
5630,1,1.0319569980262244,77.70414080755933,0.0,0.0,0.0,0.0,0.0,-0.00010149754426906705,-9.642772082236031e-5
5632,1,1.0384253088116244,78.01562390000014,0.0,0.0,0.0,0.0,0.0,-8.85964167296368e-5,-0.00011363162596335749
5669,1,1.0328126854844362,77.80251512052067,0.0,0.0,0.0,0.0,0.0,-0.0001145305897151963,-9.407779407166128e-5
5670,1,1.0371567810916782,81.17405223966483,0.0,0.0,0.0,0.0,0.0,-0.00011579069316050748,-0.00010764658441134643
5671,1,1.0163597873247299,69.74169735888033,0.0,0.0,0.0,0.0,0.0,-0.000311931830294703,-3.566492228824582e-5
5672,1,1.047983103052362,83.81270155201572,0.0,0.0,-0.6801,-0.03479,0.0,-0.00011581122756279157,-0.00011675316927076267
5673,1,1.050000010499259,68.6292937178663,0.0,0.0,0.39799999999999996,0.267,0.0,-0.0003201833453676926,-2.332273298496009e-5
5674,1,1.050168373978605,68.55814137854655,0.0,0.0,0.0,0.0,0.0,-0.0003205110614454516,-2.278533102047855e-5
5675,1,1.0502097617802193,68.55706887708597,0.0,0.0,0.0,0.0,0.0,-0.00032048580066143507,-2.278353571675648e-5
5681,1,1.0396190745269356,53.845028908487826,0.0,0.0,0.0,0.0,0.0,-0.0003579981604902972,8.570327038197899e-5
5683,1,1.0500000101573839,52.58423817995984,0.0,0.0,0.18600000000000003,-0.001,0.0,-0.00035785273367630485,0.00010149984137077101
5699,1,1.0352104188232092,68.02440367082507,0.0,0.0,0.0,0.0,0.0,-0.00017959502632205828,-1.839833677642462e-5
5818,1,0.97940248824403,46.23386089406337,0.0,0.0,0.0,0.0,0.0,-0.00023510108871854305,8.786946027602467e-5
5905,1,0.9912945675234311,73.11281705273308,0.0,0.0,-0.862,0.29100000000000004,0.0,-0.0005876594135546864,-0.0001603098816760559
5957,1,1.0383935438922163,59.15514723691505,0.0,0.0,0.0,0.0,0.0,-0.00043221291305717665,5.658788922725494e-5
6017,1,1.033070926092407,74.91341600724347,0.0,0.0,0.0,0.0,0.0,-0.00017607007320044276,-8.009416327451568e-5
6018,1,1.0313335398942505,77.419814878501,0.0,0.0,0.0,0.0,0.0,-0.00011427680770824721,-9.280347287573531e-5
6019,1,1.0500000104999976,87.43093243287487,0.0,0.0,-0.8445,-0.01558,0.0,0.0003444662939998653,-0.0001110275442468339
6075,1,1.0496575523709106,53.617660709259525,0.0,0.0,0.0,0.0,0.0,-0.00011908698286593207,4.62942758920137e-5
6098,1,1.161738275979437,51.120737292321344,0.0,0.0,0.0,0.0,0.0,0.0006909960968111121,-5.4532465951013876e-5
6099,1,1.1613835092144176,51.12018224104657,0.0,0.0,0.0,0.0,0.0,0.0006914183818664047,-5.456579199422512e-5
6630,1,1.0327295425001508,86.4587095005506,0.0,0.0,-0.8689,-0.040369999999999996,0.0,-0.000280207251980331,-0.00018317360074509258
6631,1,1.0320530986126286,77.16495157801766,0.0,0.0,0.0,0.0,0.0,-0.0002747820545472831,-9.580546866288603e-5
6632,1,1.0231481202818917,82.53896069597697,0.0,0.0,0.0,0.0,0.0,-0.00028547397479435495,-0.00014850885081669075
6638,1,1.0363904026256634,86.18308477875644,0.0,0.0,-0.8495,-0.008105,0.0,-0.00028288720702074273,-0.0001800267055893237
6639,1,1.0279451498753014,81.39649667647927,0.0,0.0,0.0,0.0,0.0,-0.00028140363090998523,-0.0001369570746669216
6640,1,1.033580288138299,68.71376017360141,0.0,0.0,0.0,0.0,0.0,-0.00022614888696535583,-2.6373169636775916e-5
6641,1,1.0255873433138334,72.68731005861872,0.0,0.0,0.0,0.0,0.0,-0.00023016559269170136,-5.9467818088236726e-5
6647,1,1.0339268185585828,86.17237948323707,0.0,0.0,-0.8578,-0.01088,0.0,-0.00028711108412497803,-0.0001807667541974981
6648,1,1.0326537556095121,84.46485499857377,0.0,0.0,-0.6746,-0.01199,0.0,-0.00028241806617507897,-0.00016558165561204345
6665,1,1.0292892425926403,76.09081445934926,0.0,0.0,0.0,0.0,0.0,-0.0002378435815497664,-8.498276835383559e-5
6666,1,1.027060080836804,81.10930473831534,0.0,0.0,0.0,0.0,0.0,-0.00024352569412652852,-0.0001272563063918842
6667,1,1.0258015172085078,80.771710647891,0.0,0.0,0.0,0.0,0.0,-0.00024396810454676163,-0.0001244304018762452
6668,1,1.0272376382379218,80.95935435999043,0.0,0.0,0.0,0.0,0.0,-0.00024323409826273166,-0.0001259545956116596
6669,1,1.0282395352357192,81.19271301636223,0.0,0.0,0.0,0.0,0.0,-0.00024274530090682687,-0.00012789495499759422
6670,1,1.0286490125991974,76.59481165079029,0.0,0.0,0.0,0.0,0.0,-0.00023877785110043258,-8.917543449806008e-5
6671,1,1.028362237388877,77.0826164517997,0.0,0.0,0.0,0.0,0.0,-0.00023944673150578803,-9.324558989693269e-5
6672,1,1.0398365529948874,84.81741857412996,0.0,0.0,-0.7132,-0.05598,0.0,-0.00024312736673622417,-0.0001562697724867454
6673,1,1.0405893229747307,84.83920393710362,0.0,0.0,-0.6556000000000001,-0.03999,0.0,-0.00024428435535955276,-0.00015569451880149797
6674,1,1.0391602061150624,84.66587990611275,0.0,0.0,-0.6581,-0.05028,0.0,-0.00024289187736647316,-0.00015512013346920974
6675,1,1.0386928644787343,84.52573978647972,0.0,0.0,-0.7099,-0.06328,0.0,-0.00024192380756632732,-0.00015438754021618737
6705,1,1.0261785620953805,72.97201756027808,0.0,0.0,0.0,0.0,0.0,-0.00023032209752705325,-6.161407093466055e-5
6706,1,1.0310378553173487,77.02186367070986,0.0,0.0,0.0,0.0,0.0,-0.00023011103162849536,-9.42132447794251e-5
6707,1,1.0302503888973087,78.15724310078616,0.0,0.0,0.0,0.0,0.0,-0.0002295017418344549,-0.00010334176955207428
6708,1,1.0500000104999176,81.61372943146513,0.0,0.0,-0.6709999999999999,-0.01529,0.0,-0.0002244809450951036,-0.00012807545058298573
6709,1,1.0500000104999383,82.53857086695368,0.0,0.0,-0.8568000000000001,-0.03407,0.0,-0.00022314158196237344,-0.0001354371881376215
6743,1,1.038457168245409,59.14899898938513,0.0,0.0,0.0,0.0,0.0,-0.0004322324816518886,5.6680546938741265e-5
6744,1,0.9919413915735339,59.149658560386996,0.0,0.0,0.0,0.0,0.0,-0.00043215633130291,5.667059459127659e-5
6745,1,0.9924332349374329,59.14965703540341,0.0,0.0,0.0,0.0,0.0,-0.000432156366666162,5.6670617598309995e-5
6746,1,0.9923437639091813,59.148053649681586,0.0,0.0,0.0,0.0,0.0,-0.0004321425765826709,5.669403227599233e-5
6747,1,0.9929049390609807,59.14758119890247,0.0,0.0,0.0,0.0,0.0,-0.00043214164873234804,5.670108666363519e-5
7041,1,1.0064493255389224,67.43938757760183,0.0,0.0,0.0,0.0,0.0,-0.00019111300857475847,7.980571746401264e-6
7042,1,1.0064647470066233,67.43938798143385,0.0,0.0,0.0,0.0,0.0,-0.00019043488981801833,7.980569742652748e-6
7050,2,0.9953529584157176,-2.552064942761706,0.65,-1.5700000156999991,0.0,0.0,0.0,0.0,0.00014914179603473754
7051,2,0.9500021782992775,0.0558600330209214,2.373,-3.670000036699999,0.0,0.0,0.0,0.0,0.0005891172659547152
7053,1,1.0792642317351697,-3.8438085178000403,0.0,0.0,0.0,0.0,0.0,0.004762330023923034,-7.888386459127215e-5
7055,1,1.080992775143529,-3.918505243787337,0.0,0.0,0.008,0.006,0.0,0.004743189337078007,-9.000511395301861e-5
7056,1,1.050392047867705,-2.6087749286108246,0.0,0.0,0.0,0.0,0.0,0.004474428818791136,0.00013648208723907726
7059,1,1.0810081881107574,-3.9203029131377436,0.0,0.0,0.0,0.0,0.0,0.004743185610573329,-9.030468208953705e-5
7060,1,1.0504590024779672,-2.611672962858104,0.0,0.0,0.0,0.0,0.0,0.00445749443453457,0.00013725505505912002
7061,2,0.9499999899999894,0.012869696120455852,1.87,-2.940000029399998,0.0,0.0,0.0,0.0,0.0004357791915997603
7062,2,0.9915105886517902,1.0527880540305827,0.98,-0.6290000099999992,0.0,0.0,0.0,0.0,0.0007946082055087911
7063,1,1.079311127639806,-3.843129887159291,0.0,0.0,0.0,0.0,0.0,0.004761941809172431,-7.873908930480108e-5
7064,2,0.9940036553909594,-1.3933046949228698,1.95,-2.520000025199999,0.0,0.0,0.0,0.0,0.00035460344327432116
7065,1,1.078840166688429,-3.8199159622414514,0.0,0.0,0.0,0.0,0.0,0.004766697945943498,-7.510817309437642e-5
7101,1,1.0415767887189422,41.60318652779965,0.0,0.0,0.0,0.0,0.0,-0.00012890620485880554,1.2606144978123237e-5
7102,1,1.057088499335084,33.54066118297477,0.0,0.0,0.0,0.0,0.0,-0.00015172663678523384,5.579538270244373e-5
7103,1,1.0414077951889773,41.3257760779711,0.0,0.0,0.0,0.0,0.0,-0.00012535710064494565,1.4593956915666888e-5
7104,1,1.057009570364961,33.69022725435195,0.0,0.0,0.0,0.0,0.0,-0.00014907762881822092,5.338786102736244e-5
7105,1,1.0597627695163145,33.327880529415296,0.0,0.0,0.0,0.0,0.0,-0.00015700631981780463,5.4924541337031446e-5
7111,1,1.0481073044351839,38.13142461205856,0.0,0.0,0.0,0.0,0.0,-0.00011236752035304135,4.9218728273419125e-5
7112,1,1.046270742925951,36.65833738451946,0.0,0.0,0.0,0.0,0.0,-0.0001503945319712772,5.597588160366182e-5
7113,1,1.0469342661985601,36.5194197104282,0.0,0.0,0.0,0.0,0.0,-0.00015387910674566116,5.696064697167505e-5
7181,1,1.0431680345906948,50.20044433649889,0.0,0.0,0.0,0.0,0.0,-0.000297802889150607,9.519234066627349e-5
7183,1,1.0500000104889586,49.652607088659444,0.0,0.0,0.08199999999999999,0.012,0.0,-0.0002985382435240446,0.00010095380285735889
7190,1,1.0341303941339888,46.241630837954446,0.0,0.0,0.0,0.0,0.0,-0.00023516404272484786,8.780673932337729e-5
7191,1,1.0500000104999907,47.026993295100546,0.0,0.0,0.0,0.0,0.0,-0.00023492785897592374,9.118713993042344e-5
7193,1,1.0500000104963256,45.9506578290548,0.0,0.0,0.15900000000000003,-0.022000000000000002,0.0,-0.0002336284739875371,0.00010004216009368993
7197,1,0.9999999900000002,51.1910123425937,0.0,0.0,0.0,0.0,0.0,-0.0001649953255274736,6.287380877197519e-5
7235,1,1.031149313958477,39.14116363290016,0.0,0.0,0.0,0.0,0.0,0.0001374446217199536,3.485413631679913e-5
7238,1,0.9999999900000002,42.423843092770866,0.0,0.0,0.0,0.0,0.0,0.0004345061550850328,8.124449215883542e-5
7241,1,1.0439336423313252,41.66593915365521,0.0,0.0,0.124,0.036000000000000004,0.0,0.00012035298311019301,-2.1609979324002636e-5
7257,1,1.0262040123928116,73.05979994038806,0.0,0.0,0.0,0.0,0.0,-0.00023094643789095195,-6.218389898182167e-5
7258,1,1.0251474463219081,73.81291407934759,0.0,0.0,0.0,0.0,0.0,-0.00023245709852338245,-6.827537516956561e-5
7259,1,1.0213995690365811,78.77264438612497,0.0,0.0,0.0,0.0,0.0,-0.0002393954575195253,-0.00010922297232116928
7260,1,1.023753445348101,78.33532708274797,0.0,0.0,0.0,0.0,0.0,-0.00023709334739006074,-0.00010541462100955841
7269,1,1.0401973579097672,83.53804740779165,0.0,0.0,-0.8059999999999999,-0.06178,0.0,-0.0002396388011984026,-0.0001453197267162471
7270,1,1.0380942002971494,82.24354123293519,0.0,0.0,-0.7326999999999999,-0.06283,0.0,-0.00023656835920330362,-0.00013541229717329754
7271,1,1.0266827286079656,73.46188635582934,0.0,0.0,0.0,0.0,0.0,-0.00023190752488865302,-6.510080566460434e-5
7272,1,1.025477483764112,74.19543965173764,0.0,0.0,0.0,0.0,0.0,-0.00023346318185657044,-7.10592356357261e-5
7273,1,1.0240136620827163,79.18615612537573,0.0,0.0,0.0,0.0,0.0,-0.00023873784565808754,-0.000112294379908894
7274,1,1.0195565786199317,78.44946548930025,0.0,0.0,0.0,0.0,0.0,-0.00024066469141275954,-0.00010632652304180766
7275,1,1.0391802006406885,83.06911178984234,0.0,0.0,-0.8099,-0.07259,0.0,-0.0002380916029494259,-0.00014205792021408084
7276,1,1.0416055972212674,83.64393003115805,0.0,0.0,-0.6944,-0.028849999999999997,0.0,-0.0002425484320999488,-0.00014444703230261362
7287,1,1.0444149682262638,42.036072203812495,0.0,0.0,0.0,0.0,0.0,0.00012886694957853562,-2.2082819652903282e-5
7288,1,1.055549175255342,42.158302867003805,0.0,0.0,0.0,0.0,0.0,0.00012870217758718513,-2.1567274531147444e-5
7292,1,1.044400459400303,42.03595505546957,0.0,0.0,0.0,0.0,0.0,0.00012887053004716217,-2.208343415273105e-5
7293,1,1.0555348391165171,42.158191258625905,0.0,0.0,0.0,0.0,0.0,0.00012870567365156198,-2.1567861311344175e-5
7300,1,1.04838558109936,43.85742681927003,0.0,0.0,0.0,0.0,0.0,0.00010583452360402921,-1.372546108744827e-5
7301,1,1.0158521845619768,47.04773008432607,0.0,0.0,0.0,0.0,0.0,0.00022258322342831442,-1.045895134190935e-5
7302,1,1.0709779951837959,42.14422112910683,0.0,0.0,0.0,0.0,0.0,0.000189121955502257,-1.9227436522700088e-5
7303,1,1.0153821692565133,46.964290393361225,0.0,0.0,0.0,0.0,0.0,0.00021999630156373053,-9.858113387511073e-6
7305,1,1.0143737703734026,47.09159489790224,0.0,0.0,0.0,0.0,0.0,0.00022468999811259228,-9.467626885379011e-6
7308,1,1.0500000104999954,42.19141301918739,0.0,0.0,0.0,0.0,0.0,0.00012760000283928963,-2.1557461653227775e-5
7460,1,1.0449804027730853,-15.055971274428424,0.0,0.0,0.0,0.0,0.0,0.0001788910801742342,2.921642860135624e-5
7470,1,1.0449661703846291,-15.056807882162591,0.0,0.0,0.0,0.0,0.0,0.0001788934380461042,2.9210609753441904e-5
7474,1,1.0422343175245283,-14.49826544496471,0.0,0.0,0.005,0.002,0.0,0.000171676428831774,3.444983485555998e-5
7484,1,1.0425173031446582,-14.481967102322134,0.0,0.0,0.0,0.0,0.0,0.00017163144261704688,3.455747501962687e-5
7510,1,1.0420009881301033,-14.511635869643507,0.0,0.0,0.016,0.006,0.0,0.0001717132575450646,3.436152832928013e-5
7525,1,0.9893448504653947,-16.170065258539168,0.0,0.0,0.017,0.006999999999999999,0.0,0.00018206809489809946,2.2242240188421237e-5
7552,1,1.0557037481546392,33.74970152302205,0.0,0.0,0.0,0.0,0.0,0.00011689659371970929,6.407078291682123e-5
7553,1,1.0552602652552985,33.762895187092376,0.0,0.0,0.0,0.0,0.0,0.00011699489575321512,6.41246518339236e-5
7591,1,1.0007267501484545,49.36762930605319,0.0,0.0,0.0,0.0,0.0,-0.00015026901338670434,-6.23174686455343e-6
7593,1,0.9999999900000005,49.235490182283556,0.0,0.0,0.0,0.0,0.0,0.00014665042792464533,2.779425324377419e-5
7900,1,0.9783042111369212,73.2938505950984,0.0,0.0,0.0,0.0,0.0,-0.00018735098094249488,-5.2243879711488904e-5
7901,1,0.9781712858151971,73.31969598987551,0.0,0.0,0.0,0.0,0.0,-0.00018771583349118322,-5.243984651888494e-5
7902,1,0.9792304022700888,73.31329770361542,0.0,0.0,0.0,0.0,0.0,-0.0001876549623663215,-5.2390604782384984e-5
7903,1,0.9792141298767941,73.32883983760068,0.0,0.0,0.0,0.0,0.0,-0.00018700896020935515,-5.244038495646843e-5
7997,1,1.0497988766606408,50.97817812745359,0.0,0.0,0.0,0.0,0.0,0.0007244846736741543,-5.97737866527619e-5
7998,1,1.0499298379637603,50.977152578905574,0.0,0.0,0.0,0.0,0.0,0.0007245100267486637,-5.98033188403394e-5
8004,2,0.9996467152642436,0.0,-1.31,0.0,0.0,0.0,0.0,0.0,-0.00030926246402485596
8167,1,1.0370302703763277,59.15577993603466,0.0,0.0,0.0,0.0,0.0,-0.0004322526286129531,5.657883497586691e-5
8168,1,1.0379960161770336,59.15601205777432,0.0,0.0,0.0,0.0,0.0,-0.00043222582413985575,5.6575332099554406e-5
8188,1,1.035691473976959,46.23609369345804,0.0,0.0,0.0,0.0,0.0,-0.00023513695559018328,8.785149466616642e-5
8189,1,0.9784397692613985,46.23701024802322,0.0,0.0,0.0,0.0,0.0,-0.00023511667498599378,8.784397055193776e-5
8198,1,1.0145859577483733,62.551968853349855,0.0,0.0,0.0,0.0,0.0,-0.0004949180715318973,5.779134663553362e-6
8199,1,0.9732169060796536,67.64820177864314,0.0,0.0,0.0,0.0,0.0,-0.0005547587819001931,-8.671405275163524e-5
8328,1,0.9923525821174469,73.17617899241937,0.0,0.0,-0.8517,0.29100000000000004,0.0,-0.0005887345126047265,-0.00015990052042544147
8329,1,0.9782103535027865,46.23549366004847,0.0,0.0,0.0,0.0,0.0,-0.00023510624121283167,8.785615887349763e-5
8338,1,1.0377648972892917,68.10621220086655,0.0,0.0,0.0,0.0,0.0,-0.00017938482023274028,-1.8884954174160678e-5
8339,1,0.9933408269046822,77.71713959125691,0.0,0.0,-0.7093,-0.022320000000000003,0.0,-0.0001876819283459308,-7.938771308670625e-5
8340,1,0.9932487137583159,77.81329752229077,0.0,0.0,-0.7089,-0.02246,0.0,-0.00018784327031453975,-8.000871822526728e-5
8354,1,1.0499962617308138,75.25488127137127,0.0,0.0,0.441,-0.047,0.0,-0.0002683719497232108,-7.74742030203197e-5
8355,1,1.0499998321027695,75.25512220776248,0.0,0.0,0.024999999999999994,0.019,0.0,-0.00026837220552992827,-7.747560865700183e-5
8366,1,0.9852719476935627,46.236238932933865,0.0,0.0,0.0,0.0,0.0,-0.00023513375147677176,8.78503023340312e-5
8367,1,0.9870340013520899,46.23623870418875,0.0,0.0,0.0,0.0,0.0,-0.00023513375728411606,8.785030421193301e-5
8368,1,0.9775421835834057,46.23701434113339,0.0,0.0,0.0,0.0,0.0,-0.00023511666967376355,8.784393695697062e-5
8369,1,0.9916926909249603,46.23699940837879,0.0,0.0,0.0,0.0,0.0,-0.00023511694225481262,8.784405953361958e-5
8370,1,0.9910925396645818,46.23700149096549,0.0,0.0,0.0,0.0,0.0,-0.00023511693707852556,8.784404244025181e-5
8372,1,0.9925810194636063,46.23435378597307,0.0,0.0,0.0,0.0,0.0,-0.00023510310533501414,8.786545086251614e-5
8373,1,0.9918538774312937,46.235020835113545,0.0,0.0,0.0,0.0,0.0,-0.0002351047063291938,8.785998554563149e-5
8408,1,1.0500000104999656,77.11001177410195,0.0,0.0,-0.6478,0.0336,0.0,-0.0004801066066070454,-0.0002260336816866376
8724,1,0.9906521594885913,73.38708161829385,0.0,0.0,-0.8509,0.285,0.0,-0.0005906826572099693,-0.00016488096084286665
8725,1,0.9836041457943151,72.62829925236649,0.0,0.0,-0.8309000000000001,0.35600000000000004,0.0,-0.0005950731389810481,-0.00014760053555024517
8726,1,0.979223784704223,80.14080136320486,0.0,0.0,-0.7828,0.151,0.0,-0.0007601176321221687,-0.0003385853105373592
8727,1,0.9808920675990564,79.1841930570714,0.0,0.0,-0.8292,0.16899999999999998,0.0,-0.0008245252666959337,-0.0003280072457633269
8728,1,0.9833033274177184,66.84541170817819,0.0,0.0,0.0,0.0,0.0,-0.0006033607118896367,-7.475100663337396e-5
8729,1,0.9701925123756204,70.72654956143045,0.0,0.0,0.0,0.0,0.0,-0.000685722673209046,-0.0001473284105697566
8730,1,0.9733736881732756,67.59488799691613,0.0,0.0,0.0,0.0,0.0,-0.0005549895686942077,-8.574666966293572e-5
8731,1,0.972971485713438,67.57406438476859,0.0,0.0,0.0,0.0,0.0,-0.0005548768006323162,-8.537803480262597e-5
8732,1,0.9669827343995412,67.50196787657057,0.0,0.0,0.0,0.0,0.0,-0.0005610817237023061,-8.444019919773763e-5
8733,1,0.9502024088679236,75.08428512122225,0.0,0.0,0.0,0.0,0.0,-0.0007360915230950801,-0.00025438356494704103
8734,1,0.9499999900000063,75.36562956742648,0.0,0.0,0.0,0.0,0.0,-0.0008073293313646131,-0.0002650977193053203
8735,1,1.010927801915585,62.952396984722284,0.0,0.0,0.0,0.0,0.0,-0.0005002283709906744,-1.0761147135992481e-6
8736,1,1.0106658879764416,62.944629187718675,0.0,0.0,0.0,0.0,0.0,-0.0005004369281644679,-9.386863776688427e-7
8737,1,0.967814387193041,71.16752973799693,0.0,0.0,0.0,0.0,0.0,-0.0006949521010212054,-0.0001578788868909609
8766,1,0.9908772770684224,46.233756929227255,0.0,0.0,0.0,0.0,0.0,-0.00023510189052479769,8.786999927557309e-5
8767,1,0.9904250599876456,46.237001144969774,0.0,0.0,0.0,0.0,0.0,-0.00023511692291236033,8.784404527957899e-5
8768,1,1.0500000104999991,50.977091626926914,0.0,0.0,0.0,0.0,0.0,0.0015698316883311658,-7.565377175892848e-5
8769,1,1.0499092849786331,50.97806366233315,0.0,0.0,0.0,0.0,0.0,0.0014837080751966625,-5.9803074393971984e-5
8770,1,1.0487436280750608,50.97997248399671,0.0,0.0,0.0,0.0,0.0,0.0007239348796446668,-5.972842112458031e-5
8771,1,0.9932784707615269,77.88448187912061,0.0,0.0,-0.7081999999999999,-0.0216,0.0,-0.00018802409638081667,-8.042664556687054e-5
8788,1,0.9933958068426003,77.57468546947078,0.0,0.0,-0.7101000000000001,-0.02311,0.0,-0.00018736741628277892,-7.839184975000861e-5
8789,1,0.9932606568162466,78.19461963546956,0.0,0.0,-0.7402,-0.0252,0.0,-0.00018843455457858075,-8.253840451821878e-5
8790,1,0.9937171326254489,77.4200220431676,0.0,0.0,-0.7111,-0.02122,0.0,-0.00018722505167065632,-7.738928093359442e-5
8950,1,0.9929838717059902,46.23040035899765,0.0,0.0,0.0,0.0,0.0,-0.00023509297564827623,8.789759026528735e-5
8951,1,0.9922866424585782,46.236990775418,0.0,0.0,0.0,0.0,0.0,-0.00023511692440841129,8.78441303890616e-5
8952,1,0.9870291211331385,46.236238100428764,0.0,0.0,0.0,0.0,0.0,-0.00023513375539938516,8.785030916746434e-5
9467,1,1.0500000104999947,69.62309637017488,0.0,0.0,0.0,0.0,0.0,0.00012108508929944876,-4.207640840641854e-6
9507,1,0.94999999,-13.278077870774837,0.0,0.0,0.0,0.0,0.0,-0.003973132565123337,5.8259170317683404e-5
9508,1,0.94999999,-13.278076572563922,0.0,0.0,0.0,0.0,0.0,-0.00400888121091436,5.8258871008224134e-5
9524,1,0.9701981530170134,67.48872263350663,0.0,0.0,0.0,0.0,0.0,-0.00020069039215893432,-5.32959599752865e-6
9526,1,1.026892051653843,53.84626483085427,0.0,0.0,0.0,0.0,0.0,-0.00035793365210120664,8.568782470853778e-5
11394,1,1.045890989567024,-14.980768501721807,0.0,0.0,0.0,0.0,0.0,0.00017869093997192426,2.9733875114130678e-5
11395,1,1.045691057577906,-14.997714927678665,0.0,0.0,0.0,0.0,0.0,0.00017873626258893457,2.96172863059219e-5
11797,1,1.043762590872881,-14.508155958839112,0.0,0.0,0.0,0.0,0.0,0.00017266701144600454,3.41431821075433e-5
13584,1,0.9908039861513739,-16.09575375201897,0.0,0.0,0.0,0.0,0.0,0.00018183657337263791,2.2801484705296744e-5
21392,1,1.0449554378730785,-15.048653492315067,0.0,0.0,0.0,0.0,0.0,0.00017887303674022964,2.9266262952106182e-5
21394,1,1.0452494151286764,-15.019915306360307,0.0,0.0,0.0,0.0,0.0,0.0001787955434068409,2.9464485148553775e-5
21395,1,1.0450624774597435,-15.035965945064286,0.0,0.0,0.0,0.0,0.0,0.00017883901064686251,2.935372909902282e-5
21797,1,1.043996380781071,-14.4929308612778,0.0,0.0,0.0,0.0,0.0,0.00017262660928503787,3.424344792598803e-5
23584,1,0.9897056667108254,-16.152011852115702,0.0,0.0,0.0,0.0,0.0,0.00018201045857039317,2.23789366500417e-5
40509,1,0.9581066974991611,10.921056986313408,0.0,0.0,0.0,0.0,0.0,0.00014207517859390767,-0.00022778760792151195
40512,1,0.9513101598501258,10.574595481525485,0.0,0.0,0.0,0.0,0.0,-0.00024054445732000796,0.00021368490509348145
40513,1,0.9513822052801937,10.578450250812379,0.0,0.0,0.0,0.0,0.0,-0.00024050802969288057,0.00021365253807773075
40514,1,0.9513101596672138,10.574595476358306,0.0,0.0,0.0,0.0,0.0,-0.00024054445745617673,0.00021368490513685504
40515,1,0.9513755835191915,10.578095950481616,0.0,0.0,0.0,0.0,0.0,-0.00024051137728156054,0.0002136555127970309
40516,1,0.9549347395482587,11.443648701711398,0.0,0.0,0.0,0.0,0.0,0.0006040791065353628,-0.0002866235316908918
40517,1,0.9547739149490334,11.439070328559259,0.0,0.0,0.0,0.0,0.0,0.0006042826499888731,-0.00028672009135642304
41935,1,0.9499999899999932,-41.15207919063833,0.0,0.0,4.0,0.812,0.0,-0.16600903282667434,0.054662538036518354
42344,1,1.0342973727868334,61.33460634355051,0.0,0.0,0.0,0.0,0.0,-0.0004347999151790513,2.777685295098389e-5
42345,1,1.034344407693185,61.33477228200771,0.0,0.0,0.0,0.0,0.0,-0.00043476037357363304,2.7774325850392176e-5
42417,1,1.023608674448696,-15.100567681372878,0.0,0.0,0.0,0.0,0.0,0.00018636564501038494,2.6718180291267366e-5
42418,1,1.023567247015493,-15.100175843833412,0.0,0.0,0.0,0.0,0.0,0.00018638073141557656,2.672034159554839e-5
42425,1,1.0415262777093541,-17.133381969112012,0.0,0.0,0.0,0.0,0.0,0.00016961188871638888,2.263231594707335e-5
42426,1,1.041577032991694,-17.1337545194862,0.0,0.0,0.0,0.0,0.0,0.00016959535864266386,2.2630112236216782e-5
42427,1,1.0465468848669968,-16.023919024759273,0.0,0.0,0.0,0.0,0.0,0.004273738570399607,-0.0001231129506338261
42428,1,1.047848551224375,-16.0218687155638,0.0,0.0,0.0,0.0,0.0,0.004263120653121495,-0.00012280746022305038
42429,1,1.0500000104999998,-15.670282901769129,0.0,0.0,0.36,0.11800000000000001,0.0,0.0035864925210786357,-7.463903828898066e-5
42430,1,1.0443053984755517,-16.672728072769004,0.0,0.0,0.75,0.247,0.0,0.0001687223892976458,2.5352420944173165e-5
43952,1,1.0368292040053655,59.158161377101045,0.0,0.0,0.0,0.0,0.0,-0.0004334802023114473,5.734739025957536e-5
43953,1,1.0367376914677044,59.15335977456363,0.0,0.0,0.0,0.0,0.0,-0.0004329192511972017,5.726263402380821e-5
44027,1,1.0499738448119371,49.59852471080739,0.0,0.0,0.0,0.0,0.0,-0.00029860845147601045,0.00010148726369301031
44028,1,1.050208321115187,49.60287166706184,0.0,0.0,0.0,0.0,0.0,-0.0002984751444385773,0.00010144193876777349
44029,1,1.0499738448119371,49.59852471080739,0.0,0.0,0.0,0.0,0.0,-0.0002986084514760105,0.00010148726369301028
44030,1,1.050208321115187,49.60287166706185,0.0,0.0,0.0,0.0,0.0,-0.00029847514443857734,0.00010144193876777346
44035,1,1.0504849460671906,45.84915039698609,0.0,0.0,0.0,0.0,0.0,-0.0002334989023320516,0.00010084358769178671
44036,1,1.0506682354623613,45.85346654117029,0.0,0.0,0.0,0.0,0.0,-0.00023341744994537944,0.00010080839617741532
44037,1,1.0504849460671906,45.84915039698609,0.0,0.0,0.0,0.0,0.0,-0.0002334989023320516,0.00010084358769178671
44038,1,1.0506682354623613,45.85346654117029,0.0,0.0,0.0,0.0,0.0,-0.00023341744994537944,0.00010080839617741534
44084,1,1.0333210407285827,63.11278633076082,0.0,0.0,0.0,0.0,0.0,-0.00043535733937781344,4.1897642160925476e-6
44085,1,1.033569969693557,63.1126275642671,0.0,0.0,0.0,0.0,0.0,-0.0004351476841045136,4.18774242483308e-6
44111,1,1.0483781762013296,38.31083564403462,0.0,0.0,0.0,0.0,0.0,-0.00010771352085698623,4.852958328567365e-5
44112,1,1.0483799143984958,38.31087844367405,0.0,0.0,0.0,0.0,0.0,-0.00010771316368196309,4.85294222410751e-5
44526,1,1.0276085374155677,73.0445144642668,0.0,0.0,0.0,0.0,0.0,-0.00023026208492285205,-6.254673061574773e-5
44527,1,1.0275392380671249,73.04564023368917,0.0,0.0,0.0,0.0,0.0,-0.0002302931436656065,-6.255516533584682e-5
44584,1,1.0500826363456723,75.2181448267312,0.0,0.0,0.0,0.0,0.0,-0.0002683198172980736,-7.712922828012832e-5
44585,1,1.0500826363456723,75.2181448267312,0.0,0.0,0.0,0.0,0.0,-0.0002683198172980736,-7.712922828012831e-5
44586,1,1.0500417527997272,75.21878608289938,0.0,0.0,0.0,0.0,0.0,-0.00026834071141597083,-7.713523343021014e-5
44587,1,1.0500417527997272,75.21878608289938,0.0,0.0,0.0,0.0,0.0,-0.00026834071141597083,-7.713523343021014e-5
44644,1,1.0105568720825135,39.0023830972138,0.0,0.0,0.06899999999999999,-0.025,0.0,0.00010862344871836672,-2.7157730484759153e-5
44755,1,0.9418276766347321,50.93131137850654,0.0,0.0,0.0,0.0,0.0,0.0006846850365814642,-6.027692014596572e-5
44756,1,0.9414086675878526,50.93028609708591,0.0,0.0,0.0,0.0,0.0,0.0006852947976215181,-6.0330595944937475e-5
44902,1,1.044306159848567,73.29487701761605,0.0,0.0,0.0,0.0,0.0,-0.0004885911184707799,-0.00016437332817114325
44925,1,0.9926149483836759,78.67204893901395,0.0,0.0,-0.7399,-0.03636,0.0,-0.00018883921784210723,-8.550806597517928e-5
44926,1,0.9919055993490428,79.14379617324276,0.0,0.0,-0.7376999999999999,-0.0404,0.0,-0.000189423391845021,-8.882923527074763e-5
44927,1,0.9923030698497568,78.98049305198346,0.0,0.0,-0.7392,-0.03708,0.0,-0.00018939925822631875,-8.789125118825818e-5
44928,1,0.9917165485950066,78.65103952116328,0.0,0.0,-0.741,-0.045,0.0,-0.00018807715044901873,-8.571741109096276e-5
44949,1,0.9842113510688889,68.82214815078962,0.0,0.0,0.0,0.0,0.0,-0.0001811926345338183,-2.3422005012508495e-5
44953,1,0.9843577539664284,68.82498438474664,0.0,0.0,0.0,0.0,0.0,-0.00018116558273810688,-2.3439490048355828e-5
45034,1,0.9870667139269129,68.80839263001738,0.0,0.0,0.0,0.0,0.0,-0.0001806925301759292,-2.3288846738689826e-5
45035,1,0.9834181881478579,73.51947958035583,0.0,0.0,0.0,0.0,0.0,-0.00018658513225544592,-5.334557026269357e-5
45036,1,0.9833139858024432,73.47765229158045,0.0,0.0,0.0,0.0,0.0,-0.00018665033313279808,-5.307010823690674e-5
45037,1,0.9870093501149866,68.82415302788083,0.0,0.0,0.0,0.0,0.0,-0.00018073329551325894,-2.33881490491319e-5
45038,1,0.9832431452413353,73.54057471471607,0.0,0.0,0.0,0.0,0.0,-0.00018641902496304978,-5.347208336364648e-5
45039,1,0.9830093952958081,73.70089363453715,0.0,0.0,0.0,0.0,0.0,-0.0001871821627085467,-5.454136742051324e-5
45040,1,0.9870686987038352,68.80876458081968,0.0,0.0,0.0,0.0,0.0,-0.00018068062349200123,-2.3291097180072987e-5
45041,1,0.9829977741817464,73.51217951272282,0.0,0.0,0.0,0.0,0.0,-0.00018677346377577215,-5.330959595184908e-5
45042,1,0.9837700124657355,73.49036527920717,0.0,0.0,0.0,0.0,0.0,-0.00018627679499579001,-5.3126623838851954e-5
45049,1,0.979680119112928,73.56880493567245,0.0,0.0,0.0,0.0,0.0,-0.0001878122786038686,-5.4071978581309326e-5
45050,1,0.9779629569356211,73.27112356452241,0.0,0.0,0.0,0.0,0.0,-0.00018884790452571834,-5.222325230699775e-5
45051,1,0.9958250519666004,78.56735667768567,0.0,0.0,-0.7857999999999999,-0.03193,0.0,-0.0001892367832280614,-8.453338624979009e-5
45052,1,0.996489568235886,79.21296675903311,0.0,0.0,-0.7472,-0.014079999999999999,0.0,-0.00019193027021093112,-8.82074324327078e-5
45201,1,1.0475575882092234,51.55211883909654,0.0,0.0,0.0,0.0,0.0,0.0006225320915748668,-4.520331221589222e-5
45202,1,1.049544441942577,51.549611016807276,0.0,0.0,0.0,0.0,0.0,0.0022419062749259883,-5.693326236648574e-5
45203,1,1.0500000104999985,51.547207548642824,0.0,0.0,0.0,0.0,0.0,0.002382127406577012,-6.970519273240538e-5
45207,1,1.0346137293012598,69.78550137955045,0.0,0.0,0.0,0.0,0.0,-0.0002289433540165566,-3.462319441343046e-5
45208,1,0.9785585217696349,75.63963115416553,0.0,0.0,0.0,0.0,0.0,-0.00023906878051091173,-8.259973026376057e-5
45209,1,0.9883267691934002,80.78124722246596,0.0,0.0,-0.821,-0.055529999999999996,0.0,-0.00023997996898672845,-0.00012403951923247407
45372,1,1.0374679138806941,81.16363980457645,0.0,0.0,0.0,0.0,0.0,-0.00011582489580338524,-0.00010760724379305996
45373,1,1.0314513200285333,77.41830483405302,0.0,0.0,0.0,0.0,0.0,-0.00011428094637525111,-9.279761188924876e-5
45374,1,1.032895758665181,77.41548601531669,0.0,0.0,0.0,0.0,0.0,-0.00011428361669717732,-9.278653101841147e-5
45510,1,1.026075704165053,72.98020548338043,0.0,0.0,0.0,0.0,0.0,-0.00023022819558392185,-6.215845373540508e-5
45511,1,1.0260757041650441,72.98020548338042,0.0,0.0,0.0,0.0,0.0,-0.00023022819558392202,-6.215845373540497e-5
45512,1,1.0276698736709733,72.95652606933929,0.0,0.0,0.0,0.0,0.0,-0.0002302342701405173,-6.178978140737364e-5
45513,1,1.0260114940842862,72.98123428486475,0.0,0.0,0.0,0.0,0.0,-0.00023025701202595382,-6.216623200685225e-5
45514,1,1.0260114940842775,72.98123428486474,0.0,0.0,0.0,0.0,0.0,-0.0002302570120259538,-6.216623200685214e-5
45515,1,1.0276003316945839,72.95764117412428,0.0,0.0,0.0,0.0,0.0,-0.00023026543200818235,-6.179814269681548e-5
45535,1,1.0356330471232298,84.46647517045335,0.0,0.0,0.0,0.0,0.0,0.00019129903245040665,1.3345259832708958e-5
45536,1,1.0500000104999982,88.64868859901708,0.0,0.0,-1.143,-0.1315,0.0,0.0003825195915394532,3.521274068164354e-5
45629,1,0.984374452078641,68.78730435238207,0.0,0.0,0.0,0.0,0.0,-0.00018122556309200876,-2.320299369829244e-5
45631,1,0.9772193280939327,73.5231703494014,0.0,0.0,0.0,0.0,0.0,-0.00018912019231645826,-5.3896907182423224e-5
45632,1,0.9764920213228974,73.24113452595607,0.0,0.0,0.0,0.0,0.0,-0.00018929257937787858,-5.207495778624853e-5
45633,1,0.9961411762164285,79.36308918624222,0.0,0.0,-0.7809999999999999,-0.022639999999999997,0.0,-0.00019170926544119965,-8.928092586410626e-5
45634,1,0.9966880344996142,79.42512859854118,0.0,0.0,-0.7442,-0.010289999999999999,0.0,-0.00019280944004502982,-8.922130971442098e-5
45638,1,0.9841031987808441,68.78065643311834,0.0,0.0,0.0,0.0,0.0,-0.00018134148151581307,-2.316265112724574e-5
46249,1,1.0482419460450474,38.11287077689255,0.0,0.0,0.13,-0.126,0.0,-0.00011230807984693726,4.92800425596015e-5
46258,1,1.031516711649847,77.01964971360795,0.0,0.0,0.0,0.0,0.0,-0.0002301006753018859,-9.419641860735347e-5
46563,1,0.9884935761963175,24.345861719150456,0.0,0.0,0.011000000000000001,0.001,0.0,0.0006213197394759461,-0.0001947599606483345
46573,1,0.9798623943367454,75.6844601921382,0.0,0.0,0.0,0.0,0.0,-0.00023788890130960752,-8.286606652915158e-5
46576,1,0.9838138864599588,70.63549518547627,0.0,0.0,0.0,0.0,0.0,-0.00023092972437883615,-4.144600006864256e-5
46581,1,0.9810473993297769,75.68288388263765,0.0,0.0,0.0,0.0,0.0,-0.0002369448267571066,-8.277122091919678e-5
46582,1,0.9773887425534571,75.63375389022173,0.0,0.0,0.0,0.0,0.0,-0.0002402275817622007,-8.265404888189682e-5
46585,1,0.9838164705910503,70.63498407809874,0.0,0.0,0.0,0.0,0.0,-0.00023094361307794226,-4.144210279806848e-5
46590,1,0.9882053517914007,80.10784464080642,0.0,0.0,-0.8245999999999999,-0.06036,0.0,-0.0002380268482955119,-0.00011852296695615097
46592,1,0.9879329156435442,79.60959956604354,0.0,0.0,-0.8271,-0.06534,0.0,-0.00023660869874938653,-0.00011453377659683593
46593,1,0.9884876231010972,81.3847213889069,0.0,0.0,-0.8177,-0.05012,0.0,-0.000242036274908378,-0.0001289747257083615
46811,1,1.0500527658832939,50.977977010950184,0.0,0.0,0.0,0.0,0.0,0.0015512281453473513,-5.9807664488061084e-5
46812,1,1.0499114212339218,50.978101620293984,0.0,0.0,0.0,0.0,0.0,0.0007245081040184809,-5.977572169795168e-5
46813,1,1.0499644018741798,50.977791115800414,0.0,0.0,0.0,0.0,0.0,0.0015514892671219648,-5.981773169236304e-5
46814,1,1.0498701504188341,50.97791579940085,0.0,0.0,0.0,0.0,0.0,0.0007245650676675659,-5.9780421804629867e-5
47041,1,0.9527865930477233,10.496285019918755,0.0,0.0,0.0,0.0,0.0,-0.0002213900612449798,0.00020132265236175897
47049,1,1.0456222401451574,17.286234858699242,0.0,0.0,-0.038,0.0,0.0,0.005601957211345145,-0.00383843130732498
47068,1,1.0500000104966107,66.65944344409364,0.0,0.0,-0.009000000000000001,0.0,0.0,-0.00019864037400150875,3.8167648822418694e-7
47121,1,0.9728625651969381,32.11110086241519,0.0,0.0,0.0,0.0,0.0,0.00031905745180181995,2.583454645791973e-5
47160,1,1.0500000104997753,57.14001737057412,0.0,0.0,-0.055,0.0,0.0,-0.0004359929343519584,9.097791145386829e-5
47228,1,1.0439708220637196,42.225104474417954,0.0,0.0,0.0,0.0,0.0,0.000850273229239869,5.59426066508571e-5
47230,1,1.0500000104999996,42.221999584901994,0.0,0.0,0.0,0.0,0.0,0.004430806011153662,1.8843585991316193e-5
47323,1,1.050000010498196,52.58423818523468,0.0,0.0,0.0,0.0,0.0,-0.0003578527307956143,0.00010149984130487223
47327,1,1.049996261986407,75.254881267345,0.0,0.0,0.0,0.0,0.0,-0.00026837194959255384,-7.747420298260902e-5
48000,1,0.9728625651969381,32.11110086241519,0.0,0.0,0.0,0.0,0.0,0.0003190574518018199,2.5834546457919737e-5
48013,1,0.9905058991811888,24.61958950137514,0.0,0.0,-0.091,0.0,0.0,0.0006972051353081621,-0.00022121695198924453
48039,1,1.0479321938568085,51.55130702558765,0.0,0.0,0.0,0.0,0.0,0.0019942960595905656,-5.358784658499481e-5
48040,1,1.049654673690102,51.54498553958709,0.0,0.0,0.0,0.0,0.0,0.01342399232847248,-0.00020880838745054517
48041,1,1.0500000105000253,51.54046053585041,0.0,0.0,0.0,0.0,0.0,0.020141074852690417,-0.0009445861124555766
48165,1,1.0384287558366583,78.33908795793319,0.0,0.0,0.0,0.0,0.0,0.0005549939863570671,-2.3085026695013493e-6
48166,1,1.038557443016151,78.34189717127016,0.0,0.0,0.0,0.0,0.0,0.00011240404463535022,4.06017455223515e-6
48172,1,1.050000010499999,78.62982882763878,0.0,0.0,-0.03825,-0.06292,0.0,0.0012533034570112037,-7.071167211460444e-5
48173,1,1.0485399028945535,78.58889680635345,0.0,0.0,-0.03825,-0.06292,0.0,0.00011048301671848507,5.2355316640025485e-6
48177,1,1.0314494466266513,78.12081003139167,0.0,0.0,0.0,0.0,0.0,0.00011383558416027873,3.1616875889451228e-6
